Daily Reservoir Outflow file:     .day file Subbasin:50 2013/12/18 0:00:00 ArcSWAT 2009.93.7
   35.00
   44.00
   50.00
   52.00
   52.00
   51.00
   50.00
   53.00
   49.00
   61.00
   50.00
   50.00
   38.00
   54.00
   37.00
   46.00
   47.00
   35.00
   36.00
   36.00
   30.00
    2.00
    8.00
    2.00
    2.00
    2.00
   13.00
    9.00
   18.00
   23.00
   31.00
   25.00
   28.00
   17.00
   25.00
   35.00
   29.00
   23.00
   40.00
   42.00
   35.00
   34.00
   38.00
   34.00
   36.00
   42.00
   35.00
   33.00
   32.00
   32.00
   31.00
   31.00
   40.00
   35.00
   42.00
   43.00
   36.00
   32.00
   32.00
   32.00
   31.00
   33.00
   33.00
   33.00
   35.00
   34.00
   36.00
   36.00
   32.00
   28.00
   29.00
   30.00
   28.00
   28.00
   25.00
   26.00
   35.00
   26.00
   24.00
   24.00
   26.00
   28.00
   30.00
   30.00
   40.00
   40.00
   38.00
   34.00
   37.00
   41.00
   38.00
   34.00
   26.00
   29.00
   15.00
   19.00
   24.00
   19.00
   23.00
   22.00
   21.00
   21.00
   21.00
   21.00
   22.00
   21.00
   29.00
   36.00
   36.00
   34.00
   35.00
   31.00
   33.00
   37.00
   35.00
   36.00
   38.00
   39.00
   47.00
   52.00
   41.00
   61.00
   59.00
   62.00
   63.00
   65.00
   48.00
   63.00
   50.00
   51.00
   65.00
   67.00
   66.00
   77.00
   76.00
   59.00
   76.00
   47.00
   63.00
   37.00
   64.00
   46.00
   45.00
   61.00
   62.00
   63.00
   57.00
   60.00
   62.00
   61.00
   36.00
   62.00
   64.00
   62.00
   61.00
   57.00
   57.00
   63.00
   56.00
   54.00
   35.00
   59.00
   61.00
   60.00
   50.00
   36.00
   75.00
   75.00
   82.00
   78.00
   78.00
   86.00
   81.00
   77.00
   79.00
   60.00
   58.00
   76.00
   75.00
   50.00
   44.00
   58.00
   82.00
   82.00
   77.00
   86.00
   63.00
   67.00
   64.00
   68.00
   58.00
   56.00
   47.00
   64.00
   74.00
   76.00
   77.00
   57.00
   62.00
   68.00
   70.00
   73.00
   77.00
   76.00
   78.00
   56.00
   34.00
   48.00
   46.00
   42.00
   44.00
   38.00
   67.00
   70.00
   73.00
   74.00
   71.00
   59.00
   55.00
   58.00
   56.00
   44.00
   58.00
   65.00
   92.00
   86.00
   92.00
  100.00
   88.00
  100.00
  102.00
  110.00
   72.00
   30.00
   30.00
    7.00
    8.00
   12.00
    1.00
   17.00
   36.00
   35.00
   29.00
   34.00
   34.00
   41.00
   43.00
   55.00
   71.00
   70.00
   74.00
   78.00
   79.00
   77.00
   84.00
   87.00
   83.00
   79.00
   85.00
   76.00
   80.00
   64.00
   64.00
   63.00
   48.00
   38.00
   53.00
   34.00
   33.00
   33.00
   71.00
   71.00
   58.00
   43.00
   46.00
   53.00
   51.00
   41.00
   41.00
   49.00
   51.00
   38.00
   42.00
   39.00
   42.00
   44.00
   50.00
   46.00
   53.00
   39.00
   39.00
   40.00
   44.00
   40.00
   41.00
   33.00
   36.00
   34.00
   40.00
   34.00
   34.00
   34.00
   35.00
   35.00
   35.00
   39.00
   39.00
   38.00
   39.00
   35.00
   36.00
   36.00
   36.00
   36.00
   35.00
   35.00
   34.00
   35.00
   35.00
   35.00
   34.00
   34.00
   34.00
   36.00
   36.00
   36.00
   37.00
   35.00
   25.00
   24.00
   25.00
   24.00
   23.00
   24.00
   23.00
   23.00
   24.00
   23.00
   23.00
   22.00
   22.00
   23.00
   21.00
   24.00
   24.00
   23.00
   24.00
   36.00
   35.00
   36.00
   36.00
   36.00
   36.00
   36.00
   36.00
   30.00
   36.00
   36.00
   37.00
   36.00
   37.00
   26.00
   24.00
   25.00
   22.00
   25.00
   23.00
   22.00
   25.00
   25.00
   24.00
   26.00
   25.00
   30.00
   40.00
   38.00
   38.00
   38.00
   35.00
   14.00
   26.00
   24.00
   27.00
   24.00
   26.00
   25.00
   26.00
   24.00
   23.00
    6.00
   11.00
   20.00
    2.00
   21.00
   21.00
   17.00
   23.00
    9.00
    7.00
    8.00
    6.00
   24.00
    0.00
    0.00
   10.00
    1.00
    9.00
    6.00
    5.00
    6.00
   17.00
   14.00
   15.00
   20.00
   23.00
    9.00
    8.00
   12.00
    5.00
   16.00
   14.00
    0.00
    8.00
    7.00
    8.00
    7.00
    7.00
    9.00
   10.00
   12.00
    8.00
    8.00
   12.00
   14.00
   13.00
   24.00
   25.00
   24.00
   25.00
    7.00
   29.00
   17.00
   17.00
   17.00
   15.00
   13.00
   12.00
   13.00
    7.00
   16.00
   18.00
   21.00
   13.00
   15.00
   17.00
   19.00
   18.00
   21.00
   12.00
    8.00
   12.00
   22.00
   21.00
    0.00
   12.00
   15.00
   25.00
   21.00
   20.00
   19.00
   20.00
   19.00
   30.00
   29.00
   28.00
   48.00
   38.00
   36.00
   46.00
   25.00
   21.00
   23.00
   25.00
   15.00
   29.00
   31.00
   35.00
   47.00
   45.00
   34.00
   30.00
   26.00
   22.00
   31.00
   27.00
    2.00
   18.00
   25.00
   40.00
   20.00
   38.00
   41.00
   33.00
   57.00
   37.00
   39.00
   28.00
   31.00
   33.00
   35.00
   52.00
   27.00
   23.00
   29.00
   66.00
   54.00
   18.00
   39.00
   20.00
   10.00
   32.00
   42.00
   54.00
   35.00
   34.00
   24.00
   24.00
   10.00
    1.00
    1.00
    1.00
    1.00
   14.00
    1.00
    1.00
    5.00
    5.00
    5.00
   21.00
    7.00
    3.00
    4.00
    1.00
    1.00
    7.00
    1.00
   17.00
   10.00
   19.00
   40.00
   29.00
   19.00
    8.00
   23.00
   30.00
   57.00
   52.00
   41.00
   61.00
   57.00
   56.00
   55.00
   56.00
   47.00
   52.00
   54.00
   57.00
   74.00
   80.00
   77.00
   91.00
   87.00
   79.00
   78.00
   83.00
   82.00
   87.00
   82.00
   81.00
   81.00
   65.00
   55.00
   77.00
   86.00
   90.00
   87.00
   72.00
   80.00
   91.00
   92.00
   89.00
   95.00
   95.00
   93.00
   92.00
   92.00
   92.00
   90.00
   97.00
  101.00
  100.00
   94.00
   99.00
  101.00
   99.00
  102.00
  109.00
  115.00
  102.00
   92.00
   93.00
  110.00
  116.00
  110.00
  100.00
  113.00
  116.00
  105.00
  102.00
  109.00
   65.00
   81.00
   82.00
   97.00
   60.00
   61.00
   51.00
   50.00
   32.00
   48.00
   34.00
   33.00
   26.00
   34.00
   34.00
   33.00
   27.00
   34.00
   26.00
   26.00
   27.00
   33.00
   28.00
   25.00
   25.00
   26.00
   26.00
   38.00
   22.00
   24.00
   25.00
   24.00
   27.00
   23.00
   14.00
   14.00
   25.00
   20.00
   12.00
   22.00
   25.00
   37.00
   37.00
   37.00
   38.00
   38.00
   47.00
   49.00
   37.00
   38.00
   38.00
   45.00
   44.00
   39.00
   39.00
   37.00
   27.00
   26.00
   27.00
   26.00
   27.00
   27.00
   26.00
   27.00
    3.00
   11.00
   23.00
   25.00
   26.00
   25.00
   27.00
   27.00
   27.00
   27.00
   39.00
   20.00
   26.00
   37.00
   25.00
   25.00
   24.00
   26.00
   28.00
   25.00
   29.00
   26.00
   24.00
   26.00
   29.00
   28.00
   38.00
   28.00
   39.00
   39.00
   28.00
   38.00
   26.00
   24.00
   38.00
   27.00
   10.00
   25.00
   38.00
   26.00
   26.00
   13.00
   25.00
   25.00
   27.00
   21.00
   10.00
   26.00
   16.00
   26.00
   16.00
   25.00
    1.00
   13.00
    8.00
   25.00
   16.00
   25.00
   26.00
   27.00
   27.00
   36.00
   40.00
   37.00
   24.00
   27.00
   27.00
   25.00
    8.00
   25.00
   26.00
    2.00
    9.00
    2.00
    2.00
    2.00
    2.00
    2.00
    2.00
    2.00
    2.00
    2.00
    1.00
    8.00
    2.00
   27.00
   26.00
   26.00
   27.00
   25.00
   27.00
   25.00
   14.00
   28.00
   40.00
   40.00
   40.00
   40.00
   42.00
   49.00
   42.00
   41.00
   41.00
   41.00
   41.00
   42.00
   42.00
   42.00
   42.00
   37.00
   26.00
   30.00
   42.00
   42.00
   43.00
   43.00
   43.00
   43.00
   41.00
   29.00
   31.00
   18.00
    9.00
    9.00
   26.00
   27.00
   30.00
   30.00
   18.00
   30.00
   31.00
   30.00
   19.00
   28.00
   22.00
   30.00
   20.00
   35.00
    9.00
    3.00
   11.00
    3.00
    3.00
    2.00
    8.00
    2.00
    8.00
    2.00
   15.00
   10.00
    9.00
   25.00
   25.00
   26.00
   31.00
   46.00
   48.00
   17.00
   28.00
   23.00
   36.00
   27.00
   21.00
   26.00
   21.00
   10.00
   14.00
   19.00
   23.00
   25.00
   13.00
   18.00
   20.00
   13.00
    9.00
   17.00
   10.00
   16.00
   24.00
   10.00
   27.00
   24.00
   16.00
   26.00
   46.00
   63.00
   59.00
   58.00
   70.00
   74.00
   62.00
   72.00
   70.00
   70.00
   58.00
   70.00
   45.00
   45.00
   45.00
   40.00
    9.00
    8.00
    6.00
   21.00
   17.00
   27.00
   34.00
   28.00
   35.00
   40.00
   36.00
   20.00
   65.00
   88.00
  122.00
   70.00
   57.00
   41.00
   45.00
   45.00
   45.00
   76.00
   99.00
   96.00
   93.00
   96.00
   96.00
   98.00
   95.00
   73.00
   55.00
   64.00
   52.00
   54.00
   48.00
   56.00
   56.00
   45.00
   44.00
   44.00
   26.00
   25.00
   28.00
   28.00
   22.00
   14.00
   27.00
   26.00
   24.00
   24.00
   23.00
   21.00
   20.00
   22.00
   27.00
   19.00
   22.00
   20.00
    9.00
   20.00
   23.00
   21.00
    2.00
    6.00
   22.00
   24.00
   25.00
   19.00
   25.00
   27.00
   27.00
   26.00
   39.00
   35.00
   34.00
   49.00
   65.00
   48.00
   31.00
   72.00
   70.00
   85.00
  113.00
   83.00
   81.00
  117.00
   90.00
   84.00
   70.00
   70.00
   80.00
   68.00
   61.00
   63.00
   59.00
   72.00
   46.00
   41.00
   27.00
   13.00
   20.00
   26.00
   40.00
   28.00
   28.00
   25.00
   36.00
   38.00
   37.00
   32.00
   34.00
   59.00
   53.00
   52.00
   47.00
   43.00
   40.00
   61.00
   41.00
   40.00
   40.00
   47.00
   66.00
   49.00
   58.00
   32.00
   31.00
   34.00
   28.00
   27.00
   27.00
   26.00
   19.00
   30.00
   33.00
   32.00
   24.00
   22.00
   31.00
   32.00
   28.00
   35.00
   36.00
   49.00
   42.00
   35.00
   20.00
   34.00
    8.00
   15.00
   30.00
    9.00
   25.00
   36.00
   28.00
   18.00
   21.00
   17.00
   17.00
   29.00
   31.00
   32.00
   21.00
   14.00
   22.00
   26.00
   34.00
   28.00
   20.00
   20.00
   28.00
   28.00
   21.00
   34.00
   28.00
   31.00
   42.00
   18.00
   35.00
   34.00
   23.00
   32.00
   21.00
   13.00
    9.00
    9.00
   14.00
   14.00
   16.00
   14.00
   20.00
   21.00
   18.00
   22.00
   20.00
   22.00
   22.00
   20.00
   28.00
   32.00
   23.00
   18.00
   16.00
   22.00
   22.00
   28.00
   12.00
   20.00
    2.00
    2.00
    2.00
    2.00
    2.00
    8.00
    8.00
   13.00
   17.00
   22.00
   19.00
   21.00
   19.00
   17.00
   17.00
   14.00
    8.00
   15.00
   12.00
    9.00
    7.00
    1.00
   15.00
   13.00
   12.00
   12.00
   11.00
   13.00
   10.00
   13.00
   14.00
   16.00
    9.00
   12.00
   16.00
   15.00
   10.00
   14.00
   14.00
   12.00
   13.00
    9.00
   26.00
   23.00
   19.00
   28.00
   28.00
   27.00
   27.00
   47.00
   49.00
   51.00
   51.00
   49.00
   49.00
   47.00
   46.00
   43.00
   44.00
   31.00
   14.00
   22.00
   18.00
    5.00
    9.00
   28.00
   28.00
   30.00
   32.00
   31.00
   30.00
   43.00
   46.00
   44.00
   41.00
   25.00
   35.00
   19.00
   21.00
   23.00
   22.00
   23.00
   20.00
   22.00
   23.00
   24.00
   19.00
   23.00
   10.00
   16.00
   24.00
   22.00
   29.00
   26.00
   15.00
   15.00
   25.00
   23.00
   27.00
   27.00
   17.00
    7.00
   11.00
   23.00
    8.00
   24.00
   23.00
   17.00
   15.00
   21.00
   20.00
    1.00
   20.00
    8.00
   28.00
   23.00
    8.00
   13.00
    9.00
   21.00
   26.00
   22.00
   24.00
   24.00
    1.00
    8.00
   14.00
   22.00
   19.00
   21.00
   17.00
   14.00
   21.00
   16.00
   39.00
   47.00
   57.00
   49.00
   46.00
   51.00
   32.00
   46.00
   64.00
   45.00
   46.00
    3.00
    0.00
    0.00
    0.00
    0.00
    0.00
    0.00
    0.00
    0.00
    0.00
    0.00
    0.00
    0.00
    0.00
    0.00
    0.00
    0.00
    0.00
    0.00
    0.00
    0.00
    0.00
    0.00
    0.00
    0.00
    0.00
    0.00
    0.00
    0.00
    0.00
    1.00
   14.00
   11.00
   10.00
   31.00
   26.00
   28.00
   40.00
   57.00
   74.00
   59.00
   20.00
   26.00
   24.00
   14.00
   19.00
    4.00
    3.00
    9.00
   15.00
   18.00
   22.00
   13.00
   29.00
   20.00
   41.00
   27.00
   27.00
   27.00
   13.00
   31.00
   29.00
   27.00
   30.00
   37.00
   28.00
   14.00
    2.00
    0.00
    0.00
   16.00
   21.00
   23.00
   24.00
   20.00
   41.00
   49.00
   39.00
   57.00
   51.00
   52.00
   26.00
   29.00
   51.00
   23.00
   30.00
   21.00
   19.00
   36.00
   12.00
    1.00
   18.00
   26.00
   34.00
   84.00
   58.00
    0.00
    0.00
    0.00
    9.00
   26.00
   23.00
   34.00
   31.00
   42.00
   58.00
   23.00
   48.00
   52.00
   43.00
   31.00
   34.00
   35.00
   42.00
   40.00
   43.00
   45.00
   46.00
   47.00
   32.00
   38.00
   43.00
    8.00
   15.00
   21.00
   38.00
   53.00
   67.00
   69.00
   43.00
   43.00
   44.00
   43.00
   53.00
   52.00
   52.00
   53.00
   39.00
   54.00
   52.00
   39.00
   41.00
   54.00
   73.00
   77.00
   77.00
   70.00
   23.00
   23.00
   24.00
   23.00
   25.00
   24.00
   21.00
   23.00
   25.00
   23.00
   35.00
   27.00
   25.00
   14.00
    6.00
   15.00
    8.00
    7.00
   28.00
   33.00
    8.00
    9.00
   19.00
   14.00
   14.00
   10.00
   10.00
   12.00
    8.00
    8.00
    6.00
    9.00
    8.00
    9.00
    8.00
   15.00
   13.00
   18.00
   15.00
   19.00
   14.00
   20.00
   20.00
    5.00
   15.00
   16.00
   21.00
   14.00
   10.00
   10.00
   13.00
   19.00
   20.00
   13.00
   16.00
   15.00
   14.00
   17.00
   15.00
   14.00
   14.00
   14.00
   15.00
   19.00
   25.00
   18.00
   14.00
   17.00
   23.00
   19.00
   17.00
   17.00
   20.00
   20.00
   14.00
   17.00
   15.00
   13.00
   14.00
   21.00
   15.00
   21.00
   26.00
   23.00
   23.00
   20.00
   29.00
   31.00
   35.00
   32.00
   23.00
   23.00
   24.00
   27.00
   30.00
   22.00
   24.00
   22.00
   24.00
   22.00
   23.00
   18.00
   22.00
   22.00
   24.00
   18.00
   22.00
   23.00
   28.00
   24.00
   21.00
   13.00
   19.00
   18.00
   13.00
   14.00
   16.00
   20.00
   22.00
   17.00
   17.00
   17.00
   25.00
   24.00
   12.00
   15.00
   27.00
   32.00
   42.00
   30.00
   37.00
    2.00
    0.00
    0.00
    0.00
    5.00
   36.00
    9.00
   22.00
   34.00
   46.00
   36.00
   41.00
   44.00
   45.00
   44.00
   47.00
   43.00
   40.00
   43.00
   47.00
   45.00
   49.00
   43.00
   48.00
   52.00
   46.00
   51.00
   30.00
   46.00
   49.00
   40.00
   25.00
    4.00
    0.00
    1.00
   27.00
   31.00
   12.00
   17.00
   49.00
   13.00
   52.00
   57.00
   58.00
   30.00
   42.00
   29.00
   26.00
   23.00
   20.00
   29.00
   36.00
   26.00
   27.00
   36.00
   37.00
   37.00
   31.00
   42.00
    0.00
   33.00
    0.00
   39.00
   25.00
   34.00
   47.00
   12.00
   12.00
    0.00
   16.00
   30.00
   26.00
   34.00
   39.00
   38.00
   14.00
   36.00
   56.00
   73.00
   44.00
   20.00
   30.00
   36.00
   14.00
   22.00
   23.00
   31.00
   38.00
   36.00
   51.00
   27.00
   57.00
   47.00
   65.00
   63.00
   65.00
   59.00
   64.00
   64.00
   58.00
   65.00
   65.00
   67.00
   66.00
   66.00
   66.00
   67.00
   66.00
   66.00
   66.00
   67.00
   58.00
   66.00
   67.00
   68.00
   63.00
   60.00
   68.00
   61.00
   61.00
   52.00
   66.00
   62.00
   65.00
   65.00
   66.00
   62.00
   63.00
   65.00
   65.00
   65.00
   64.00
   65.00
   65.00
   66.00
   66.00
   66.00
   66.00
   66.00
   66.00
   67.00
   66.00
   66.00
   67.00
   67.00
   67.00
   67.00
   62.00
   68.00
   67.00
   67.00
   67.00
   68.00
   68.00
   69.00
   69.00
   65.00
   59.00
   51.00
   55.00
   70.00
   83.00
   49.00
   54.00
   41.00
   48.00
   58.00
   53.00
   42.00
   63.00
   90.00
   58.00
   73.00
   72.00
   99.00
   97.00
  104.00
   90.00
   96.00
   77.00
   85.00
   90.00
  101.00
   91.00
   91.00
   90.00
  102.00
  103.00
  105.00
   94.00
   79.00
   88.00
   89.00
   91.00
   88.00
  101.00
  100.00
  101.00
  101.00
  102.00
  102.00
  100.00
  102.00
  102.00
  100.00
   85.00
   85.00
   88.00
   54.00
   63.00
   73.00
   88.00
   77.00
   78.00
   56.00
   74.00
   52.00
   54.00
   55.00
   46.00
   61.00
   64.00
   87.00
   84.00
   79.00
   61.00
   62.00
   60.00
   61.00
   41.00
   39.00
   49.00
   41.00
   39.00
   38.00
   41.00
   41.00
   45.00
   39.00
   40.00
   53.00
   55.00
   36.00
   25.00
   47.00
   51.00
   29.00
   20.00
   22.00
   20.00
   17.00
   29.00
   32.00
   30.00
   37.00
   29.00
   24.00
   26.00
   27.00
   27.00
   36.00
   52.00
   39.00
   15.00
   23.00
   15.00
   30.00
   26.00
   21.00
   18.00
   24.00
   26.00
   43.00
   41.00
   24.00
   17.00
   23.00
   16.00
   22.00
   13.00
   10.00
   33.00
   30.00
   36.00
   29.00
   34.00
   29.00
   22.00
   17.00
   28.00
   14.00
   22.00
   41.00
   42.00
   33.00
   36.00
   31.00
   28.00
   32.00
   30.00
   32.00
   32.00
   41.00
   31.00
   33.00
    2.00
   41.00
   15.00
   20.00
   23.00
   14.00
   21.00
   26.00
   31.00
   34.00
   30.00
   27.00
   17.00
   19.00
   13.00
   34.00
   22.00
    9.00
   18.00
   46.00
   19.00
   33.00
   37.00
   53.00
   44.00
   22.00
   27.00
   36.00
   24.00
   27.00
    2.00
   14.00
   38.00
   28.00
   29.00
   23.00
   38.00
   39.00
   28.00
   27.00
   34.00
   26.00
   36.00
   41.00
   38.00
   40.00
   14.00
   32.00
   16.00
   45.00
   32.00
   41.00
   35.00
   42.00
   20.00
    0.00
   40.00
   36.00
   39.00
   40.00
   39.00
   22.00
   21.00
   38.00
    0.00
   29.00
   44.00
   51.00
   40.00
   14.00
   20.00
   15.00
   39.00
   38.00
   49.00
   43.00
   44.00
   19.00
   36.00
   23.00
   20.00
   42.00
   51.00
   44.00
   51.00
   32.00
   70.00
   40.00
   67.00
   43.00
   49.00
   40.00
   30.00
   51.00
   50.00
   15.00
   46.00
   45.00
   52.00
   53.00
   58.00
   59.00
   50.00
   56.00
   28.00
   53.00
   53.00
   48.00
   51.00
   61.00
   57.00
   57.00
   55.00
   59.00
   57.00
   61.00
   56.00
   49.00
   61.00
   61.00
   59.00
   59.00
   53.00
   56.00
   54.00
   55.00
   58.00
   54.00
   59.00
   57.00
   58.00
   60.00
   62.00
   58.00
   63.00
   50.00
   62.00
   61.00
   61.00
   57.00
   60.00
   70.00
   81.00
   82.00
   82.00
   82.00
   82.00
   82.00
   82.00
  103.00
  158.00
  140.00
   83.00
   82.00
  133.00
  134.00
  102.00
  123.00
  160.00
  159.00
  157.00
  158.00
  162.00
  162.00
  162.00
  158.00
  149.00
  136.00
  133.00
  156.00
  153.00
  132.00
  149.00
  147.00
  153.00
  153.00
  142.00
  157.00
  155.00
  128.00
  129.00
  115.00
   88.00
  102.00
  124.00
  127.00
   97.00
   94.00
   84.00
   82.00
   61.00
   32.00
   65.00
   69.00
   64.00
   62.00
   96.00
  109.00
  108.00
  130.00
  120.00
   81.00
  126.00
  142.00
  147.00
  145.00
  146.00
  142.00
  141.00
  143.00
  142.00
  347.00
  188.00
  148.00
  144.00
  140.00
  140.00
  129.00
  139.00
  140.00
  139.00
  138.00
  135.00
  142.00
  141.00
  135.00
  132.00
  144.00
  145.00
  144.00
  144.00
  146.00
  148.00
  140.00
  150.00
  152.00
  111.00
   96.00
  105.00
  101.00
  105.00
   98.00
  101.00
  101.00
   94.00
  109.00
  109.00
  110.00
  115.00
  118.00
  109.00
   50.00
   62.00
   50.00
   50.00
   44.00
   53.00
   44.00
   47.00
   47.00
   45.00
   54.00
   69.00
   50.00
   54.00
   35.00
   48.00
   49.00
   47.00
   48.00
   41.00
   43.00
   42.00
   35.00
   37.00
   30.00
   47.00
   54.00
   11.00
   45.00
   28.00
   33.00
   45.00
   25.00
    1.00
   31.00
   39.00
   25.00
   24.00
   51.00
    0.00
   24.00
   25.00
   24.00
   12.00
   13.00
   15.00
   15.00
   26.00
   27.00
   25.00
   25.00
   25.00
   25.00
   25.00
   23.00
   24.00
   25.00
   24.00
   25.00
   30.00
   25.00
   26.00
   23.00
   32.00
   26.00
   26.00
   22.00
   18.00
   16.00
   25.00
   23.00
   19.00
   17.00
   19.00
   21.00
   17.00
   19.00
   18.00
   22.00
   19.00
   18.00
   19.00
   19.00
   19.00
   15.00
   20.00
   15.00
   23.00
   21.00
   25.00
   24.00
   24.00
   25.00
   24.00
   25.00
   21.00
   25.00
   25.00
   25.00
   24.00
   25.00
   24.00
   24.00
   25.00
   18.00
   21.00
   25.00
   25.00
   21.00
   24.00
   25.00
   23.00
   15.00
   24.00
   24.00
   36.00
   30.00
   31.00
   23.00
   30.00
   29.00
   34.00
   24.00
   35.00
   34.00
   34.00
   32.00
   33.00
   24.00
   25.00
   26.00
   25.00
   35.00
   26.00
   25.00
   25.00
   25.00
   24.00
   26.00
   25.00
   23.00
   23.00
   25.00
   25.00
   26.00
   26.00
   25.00
   27.00
   26.00
   29.00
   26.00
   24.00
   25.00
   26.00
   30.00
   24.00
   26.00
   25.00
   27.00
   21.00
   25.00
   24.00
   23.00
   24.00
   24.00
   23.00
   26.00
   24.00
   14.00
   21.00
   14.00
   24.00
   23.00
   25.00
   25.00
   22.00
   23.00
   24.00
   27.00
   24.00
   25.00
   24.00
   26.00
   25.00
   26.00
   36.00
   25.00
   34.00
   46.00
   36.00
   37.00
   33.00
   35.00
   32.00
   31.00
   35.00
   31.00
   29.00
   27.00
   36.00
   35.00
   32.00
   34.00
   27.00
   30.00
   29.00
   29.00
   36.00
   32.00
   32.00
   30.00
   27.00
   33.00
   31.00
   36.00
   35.00
   32.00
   33.00
   34.00
   41.00
   13.00
   46.00
   37.00
   42.00
   38.00
   41.00
   44.00
   41.00
   43.00
   44.00
   45.00
   45.00
   44.00
   39.00
   54.00
   31.00
   40.00
   46.00
   48.00
   43.00
   39.00
   50.00
   49.00
   43.00
   44.00
   50.00
   48.00
   47.00
   40.00
   39.00
   37.00
   37.00
   28.00
   22.00
   25.00
   29.00
   27.00
   26.00
   27.00
   26.00
   25.00
   27.00
   27.00
   27.00
   25.00
   20.00
   14.00
   25.00
    9.00
   23.00
   19.00
   26.00
   22.00
   25.00
   25.00
   24.00
   24.00
   39.00
   53.00
   57.00
  109.00
  119.00
  141.00
  154.00
  143.00
  155.00
  154.00
  156.00
  156.00
  157.00
  154.00
   84.00
   82.00
   82.00
   82.00
   81.00
   53.00
   81.00
   69.00
   91.00
   83.00
  108.00
   91.00
   90.00
   89.00
   87.00
   96.00
  100.00
   87.00
   92.00
   97.00
   71.00
   64.00
   64.00
   68.00
   43.00
   66.00
   66.00
   66.00
   53.00
   47.00
   51.00
   50.00
   62.00
   40.00
   41.00
   41.00
   28.00
   27.00
   27.00
   29.00
   23.00
   22.00
   23.00
   24.00
   22.00
   10.00
   22.00
   26.00
   26.00
   25.00
   21.00
   24.00
   19.00
   37.00
  109.00
  129.00
  154.00
  150.00
  151.00
  150.00
  150.00
  150.00
  150.00
  150.00
  148.00
  146.00
  142.00
  142.00
  142.00
  142.00
  141.00
  139.00
  140.00
  141.00
  141.00
  141.00
  142.00
  130.00
   94.00
   97.00
   90.00
   71.00
   72.00
   62.00
   77.00
   90.00
   78.00
   61.00
   71.00
   42.00
   51.00
   47.00
   42.00
   63.00
   74.00
   72.00
   72.00
   69.00
  119.00
  100.00
   35.00
    1.00
   20.00
   20.00
   23.00
   41.00
   54.00
   53.00
   46.00
   24.00
   24.00
   18.00
   18.00
   22.00
   17.00
   19.00
   21.00
   22.00
   19.00
   17.00
   22.00
   23.00
   22.00
   23.00
   29.00
   26.00
   27.00
   25.00
   13.00
   18.00
   29.00
   23.00
   29.00
   29.00
   30.00
   22.00
   26.00
   24.00
   31.00
   23.00
   33.00
   30.00
   31.00
   23.00
   33.00
   31.00
   24.00
   22.00
   31.00
   29.00
   33.00
   30.00
   32.00
   22.00
   25.00
   27.00
   25.00
   23.00
   23.00
   21.00
   24.00
   22.00
   18.00
   20.00
   20.00
   20.00
   22.00
   20.00
   19.00
   23.00
   22.00
   16.00
   24.00
   28.00
   21.00
   19.00
   18.00
   19.00
   22.00
    5.00
   11.00
   13.00
   24.00
   18.00
   12.00
    3.00
    7.00
    1.00
   17.00
   15.00
   20.00
    9.00
   12.00
    0.00
    6.00
   19.00
   16.00
   27.00
   27.00
   23.00
   25.00
   24.00
   23.00
   23.00
   26.00
   25.00
   26.00
   25.00
   25.00
   27.00
   24.00
   20.00
   22.00
   12.00
   23.00
   25.00
   31.00
   25.00
   22.00
   22.00
   21.00
   25.00
   24.00
   25.00
   20.00
   21.00
   10.00
   25.00
   36.00
    4.00
    0.00
    0.00
    0.00
   15.00
    7.00
   18.00
   19.00
   17.00
   21.00
   19.00
   26.00
   26.00
   22.00
   20.00
   24.00
   26.00
   42.00
   33.00
   48.00
   49.00
   44.00
   45.00
   37.00
   40.00
   32.00
   33.00
   33.00
   28.00
   27.00
   27.00
   29.00
   29.00
   27.00
   29.00
   30.00
   29.00
   26.00
   27.00
   28.00
   26.00
   36.00
   27.00
   27.00
   25.00
   39.00
   35.00
   37.00
   36.00
   35.00
   38.00
   36.00
   38.00
   35.00
   39.00
   30.00
   29.00
   22.00
    4.00
    0.00
   34.00
   36.00
   34.00
   36.00
   39.00
   44.00
   43.00
   47.00
   39.00
   34.00
   42.00
   46.00
   27.00
   23.00
   43.00
   18.00
   29.00
   50.00
   82.00
   79.00
   61.00
   29.00
   26.00
   28.00
   26.00
   24.00
   21.00
   22.00
   21.00
   29.00
   18.00
   25.00
   24.00
   25.00
   25.00
   26.00
   27.00
   26.00
   26.00
   28.00
   27.00
   42.00
   24.00
   26.00
   26.00
   18.00
   25.00
   24.00
   23.00
   25.00
   25.00
   22.00
    3.00
    1.00
    1.00
   22.00
   21.00
   23.00
   41.00
   51.00
   28.00
   39.00
   47.00
   44.00
   43.00
   45.00
   40.00
   28.00
   49.00
   49.00
   65.00
   78.00
   79.00
   89.00
   88.00
   98.00
   89.00
   87.00
  120.00
  121.00
  115.00
  116.00
  119.00
   67.00
   78.00
   64.00
   87.00
   90.00
   67.00
   58.00
   45.00
   47.00
   47.00
   47.00
   56.00
   80.00
   77.00
   77.00
  116.00
  118.00
  119.00
   98.00
   65.00
   45.00
   54.00
   76.00
   66.00
   65.00
   53.00
   61.00
   55.00
   63.00
   62.00
  101.00
  122.00
   74.00
   62.00
   63.00
   75.00
   76.00
   75.00
   76.00
   78.00
   78.00
   77.00
   77.00
   77.00
   77.00
   77.00
   76.00
   75.00
   63.00
   62.00
   49.00
   42.00
   27.00
   27.00
   22.00
   27.00
   27.00
   27.00
   27.00
   21.00
   20.00
   22.00
   16.00
   18.00
   22.00
   16.00
   18.00
   27.00
   24.00
   29.00
   27.00
   23.00
   25.00
   25.00
   20.00
   28.00
   28.00
   27.00
   26.00
   27.00
   27.00
   27.00
   28.00
   15.00
   22.00
   24.00
   22.00
   21.00
   20.00
   21.00
   18.00
   23.00
   19.00
   15.00
   16.00
   14.00
   12.00
   17.00
   24.00
   12.00
   23.00
   23.00
   13.00
   23.00
    7.00
    9.00
   12.00
    7.00
    9.00
   11.00
    0.00
   13.00
   12.00
   13.00
    7.00
   16.00
   13.00
   12.00
   10.00
   11.00
   23.00
   10.00
   17.00
   14.00
   17.00
   15.00
   17.00
   13.00
   20.00
   18.00
   16.00
   22.00
   26.00
   25.00
   24.00
   22.00
   25.00
   25.00
   25.00
   24.00
   22.00
   25.00
   24.00
   26.00
   27.00
   20.00
   24.00
   24.00
   41.00
   25.00
   24.00
   36.00
   25.00
   27.00
   25.00
   22.00
   24.00
   24.00
   26.00
   23.00
   25.00
   22.00
   26.00
   25.00
   24.00
   22.00
   25.00
   25.00
   25.00
   24.00
   22.00
   27.00
   26.00
   25.00
   26.00
   26.00
   26.00
   28.00
   26.00
   26.00
   25.00
   33.00
   30.00
   32.00
   31.00
   24.00
   23.00
    4.00
    1.00
   21.00
   51.00
   56.00
   26.00
   26.00
   27.00
   28.00
   26.00
   26.00
   28.00
   28.00
   27.00
   27.00
   26.00
   27.00
   26.00
   26.00
   29.00
   28.00
   28.00
   27.00
   25.00
   10.00
   29.00
   29.00
   29.00
   26.00
   24.00
   24.00
   27.00
   27.00
   27.00
   27.00
   29.00
   29.00
   28.00
   27.00
   27.00
   30.00
   29.00
   24.00
   22.00
   23.00
   21.00
   21.00
   23.00
   22.00
   21.00
   20.00
   22.00
   22.00
   22.00
   22.00
   23.00
   22.00
   22.00
   24.00
   22.00
   18.00
   22.00
   25.00
   23.00
   24.00
   23.00
   21.00
   20.00
   24.00
   22.00
   22.00
   20.00
   23.00
   20.00
   22.00
   21.00
   25.00
   22.00
   21.00
   22.00
   23.00
   16.00
   23.00
   22.00
   24.00
   22.00
   23.00
   21.00
   23.00
   22.00
   15.00
   21.00
   24.00
   22.00
   23.00
   21.00
   19.00
   22.00
   23.00
   21.00
   21.00
   18.00
   22.00
   21.00
   21.00
   24.00
   22.00
   34.00
   20.00
   21.00
   18.00
   29.00
   20.00
   20.00
   22.00
   20.00
   19.00
   21.00
   23.00
   21.00
   19.00
   19.00
   22.00
   21.00
   20.00
   22.00
   20.00
   21.00
   19.00
   22.00
   21.00
   22.00
   22.00
   25.00
   25.00
   26.00
   26.00
   26.00
   26.00
   23.00
   26.00
   26.00
   26.00
   24.00
   21.00
   26.00
   26.00
   25.00
   25.00
   24.00
   26.00
   23.00
   24.00
   26.00
   27.00
   28.00
   27.00
   31.00
   26.00
   26.00
   25.00
   31.00
   24.00
   25.00
   22.00
   27.00
   29.00
   28.00
   27.00
   26.00
   27.00
   25.00
   25.00
   26.00
   27.00
   29.00
   34.00
   44.00
   40.00
   46.00
   43.00
   42.00
   43.00
   49.00
   41.00
   61.00
   62.00
   61.00
   44.00
   73.00
   91.00
   91.00
   63.00
   66.00
   66.00
   74.00
   77.00
   78.00
   79.00
   78.00
   78.00
   78.00
   74.00
   78.00
   70.00
   66.00
   57.00
   62.00
   11.00
   13.00
   14.00
   56.00
   56.00
   57.00
   60.00
   57.00
   58.00
   58.00
   56.00
   74.00
   94.00
   54.00
   39.00
   39.00
   39.00
   40.00
   40.00
   40.00
   40.00
   57.00
   52.00
   40.00
   58.00
   61.00
   58.00
   59.00
   63.00
   40.00
   39.00
   29.00
   25.00
   28.00
   27.00
   23.00
   25.00
   24.00
   26.00
   25.00
   26.00
   25.00
   30.00
    6.00
    8.00
    7.00
   18.00
   20.00
   15.00
   14.00
   15.00
   18.00
   18.00
   11.00
   11.00
   15.00
   16.00
   12.00
    9.00
   13.00
    9.00
   10.00
   11.00
   11.00
    8.00
    7.00
   10.00
    6.00
   14.00
   11.00
    9.00
   13.00
   12.00
    8.00
   16.00
   12.00
    7.00
   11.00
   14.00
    8.00
    8.00
    8.00
    9.00
   23.00
   28.00
   31.00
   32.00
   35.00
   24.00
   22.00
   23.00
   17.00
   18.00
   21.00
   10.00
   11.00
   11.00
   12.00
   10.00
   15.00
   18.00
   18.00
   19.00
   19.00
   19.00
   18.00
    2.00
    1.00
    1.00
    1.00
    1.00
    1.00
    1.00
    1.00
    1.00
    1.00
    1.00
    1.00
    1.00
    1.00
    1.00
    1.00
    1.00
    1.00
    1.00
   11.00
   12.00
   19.00
   23.00
   18.00
   18.00
   21.00
   22.00
   31.00
   22.00
   22.00
   21.00
   21.00
   12.00
   14.00
   20.00
   15.00
   14.00
   15.00
   17.00
   13.00
   14.00
   16.00
   14.00
   14.00
   15.00
   14.00
   16.00
   11.00
   21.00
   16.00
   15.00
   11.00
    1.00
   21.00
   51.00
   56.00
   26.00
   26.00
   27.00
   28.00
   26.00
   26.00
   28.00
   28.00
   27.00
   27.00
   21.00
   14.00
   14.00
   17.00
   18.00
   18.00
   17.00
    5.00
    1.00
    1.00
    9.00
   14.00
   14.00
    8.00
   15.00
   15.00
   19.00
   18.00
   13.00
   14.00
   16.00
   13.00