 .Sol file Watershed HRU:555 Subbasin:71 HRU:5 Luse:ORCD Soil: QSH Slope: 2-9999 2013-6-27 00:00:00 ArcSWAT 2009.93.7
 Soil Name: QSH
 Soil Hydrologic Group: C
 Maximum rooting depth(m) :    0.00
 Porosity fraction from which anions are excluded: 0.500
 Crack volume potential of soil: 0.500
 Texture 1                : FSL-FSL-SIC
 Depth                [mm]:      200.00      720.00     1220.00
 Bulk Density Moist [g/cc]:        1.31        1.61        1.57
 Ave. AW Incl. Rock Frag  :        0.25        0.24        0.15
 Ksat. (est.)      [mm/hr]:        9.54        0.91        1.16
 Organic Carbon [weight %]:        0.05        0.05        0.05
 Clay           [weight %]:       31.66       43.14       45.06
 Silt           [weight %]:       29.19       34.99       30.95
 Sand           [weight %]:       39.15       21.87       23.99
 Rock Fragments   [vol. %]:        0.00        0.00        0.00
 Soil Albedo (Moist)      :        0.00        0.00        0.00
 Erosion K                :        0.10        0.30        0.01
 Salinity (EC, Form 5)    :        0.00        0.00        0.00
                              
