 .Sol file Watershed HRU:588 Subbasin:73 HRU:12 Luse:URMD Soil: HRXT Slope: 0-2 2013-6-27 00:00:00 ArcSWAT 2009.93.7
 Soil Name: HRXT
 Soil Hydrologic Group: B
 Maximum rooting depth(m) :    0.00
 Porosity fraction from which anions are excluded: 0.500
 Crack volume potential of soil: 0.500
 Texture 1                : C-C-C-C
 Depth                [mm]:      200.00      620.00
 Bulk Density Moist [g/cc]:        1.19        1.48
 Ave. AW Incl. Rock Frag  :        0.33        0.34
 Ksat. (est.)      [mm/hr]:       29.66       17.50
 Organic Carbon [weight %]:        2.88        0.24
 Clay           [weight %]:       15.75        6.89
 Silt           [weight %]:       14.55       15.30
 Sand           [weight %]:       69.70       77.81
 Rock Fragments   [vol. %]:        0.00        0.00
 Soil Albedo (Moist)      :        0.20        0.20
 Erosion K                :        0.10        0.19
 Salinity (EC, Form 5)    :        0.00        0.00
                              
