 .Sol file Watershed HRU:655 Subbasin:79 HRU:8 Luse:FRST Soil: SZT Slope: 2-9999 2013-6-27 00:00:00 ArcSWAT 2009.93.7
 Soil Name: SZT
 Soil Hydrologic Group: B
 Maximum rooting depth(m) :   90.00
 Porosity fraction from which anions are excluded: 0.500
 Crack volume potential of soil: 0.500
 Texture 1                : MK--LS-FS-S-GR--COS
 Depth                [mm]:      110.00
 Bulk Density Moist [g/cc]:        1.42
 Ave. AW Incl. Rock Frag  :        0.18
 Ksat. (est.)      [mm/hr]:       79.20
 Organic Carbon [weight %]:        0.69
 Clay           [weight %]:        8.15
 Silt           [weight %]:        7.94
 Sand           [weight %]:       83.91
 Rock Fragments   [vol. %]:        0.00
 Soil Albedo (Moist)      :        0.20
 Erosion K                :        0.10
 Salinity (EC, Form 5)    :        0.00
                              
