 .Sol file Watershed HRU:842 Subbasin:95 HRU:3 Luse:FRST Soil: CGT Slope: 2-9999 2013-6-27 00:00:00 ArcSWAT 2009.93.7
 Soil Name: CGT
 Soil Hydrologic Group: B
 Maximum rooting depth(m) :    0.00
 Porosity fraction from which anions are excluded: 0.500
 Crack volume potential of soil: 0.500
 Texture 1                : SICL-C-C
 Depth                [mm]:      120.00      520.00
 Bulk Density Moist [g/cc]:        1.55        1.57
 Ave. AW Incl. Rock Frag  :        0.20        0.20
 Ksat. (est.)      [mm/hr]:       66.44       54.25
 Organic Carbon [weight %]:        0.97        0.78
 Clay           [weight %]:        4.93        6.89
 Silt           [weight %]:       23.13       22.45
 Sand           [weight %]:       71.94       70.66
 Rock Fragments   [vol. %]:        0.00        0.00
 Soil Albedo (Moist)      :        0.20        0.20
 Erosion K                :        0.10        0.27
 Salinity (EC, Form 5)    :        0.00        0.00
                              
